20
CC bond length is1.44
C 0.0 0.0 0.0 
C 1.44 1.44 0.0 
C 1.0 0.0 0.0 
C 2.44 1.44 0.0 
C 2.0 0.0 0.0 
C 3.44 1.44 0.0 
C 3.0 0.0 0.0 
C 4.44 1.44 0.0 
C 4.0 0.0 0.0 
C 5.44 1.44 0.0 
C 5.0 0.0 0.0 
C 6.44 1.44 0.0 
C 6.0 0.0 0.0 
C 7.44 1.44 0.0 
C 7.0 0.0 0.0 
C 8.44 1.44 0.0 
C 8.0 0.0 0.0 
C 9.44 1.44 0.0 
C 9.0 0.0 0.0 
C 10.44 1.44 0.0 
