768
CC bond length:2.55610346698
C 0.63902587 0.42056027 0.0 
H 0.63902587 1.0744179 0.87085659 
H 0.63902587 1.0744179 -0.87085659 
C -0.63902587 -0.42056027 0.0 
H -0.63902587 -1.0744179 0.87085659 
H -0.63902587 -1.0744179 -0.87085659 
C 3.19512933698 0.42056027 0.0 
H 3.19512933698 1.0744179 0.87085659 
H 3.19512933698 1.0744179 -0.87085659 
C 1.91707759698 -0.42056027 0.0 
H 1.91707759698 -1.0744179 0.87085659 
H 1.91707759698 -1.0744179 -0.87085659 
C 5.75123280396 0.42056027 0.0 
H 5.75123280396 1.0744179 0.87085659 
H 5.75123280396 1.0744179 -0.87085659 
C 4.47318106396 -0.42056027 0.0 
H 4.47318106396 -1.0744179 0.87085659 
H 4.47318106396 -1.0744179 -0.87085659 
C 8.30733627094 0.42056027 0.0 
H 8.30733627094 1.0744179 0.87085659 
H 8.30733627094 1.0744179 -0.87085659 
C 7.02928453094 -0.42056027 0.0 
H 7.02928453094 -1.0744179 0.87085659 
H 7.02928453094 -1.0744179 -0.87085659 
C 10.8634397379 0.42056027 0.0 
H 10.8634397379 1.0744179 0.87085659 
H 10.8634397379 1.0744179 -0.87085659 
C 9.58538799791 -0.42056027 0.0 
H 9.58538799791 -1.0744179 0.87085659 
H 9.58538799791 -1.0744179 -0.87085659 
C 13.4195432049 0.42056027 0.0 
H 13.4195432049 1.0744179 0.87085659 
H 13.4195432049 1.0744179 -0.87085659 
C 12.1414914649 -0.42056027 0.0 
H 12.1414914649 -1.0744179 0.87085659 
H 12.1414914649 -1.0744179 -0.87085659 
C 15.9756466719 0.42056027 0.0 
H 15.9756466719 1.0744179 0.87085659 
H 15.9756466719 1.0744179 -0.87085659 
C 14.6975949319 -0.42056027 0.0 
H 14.6975949319 -1.0744179 0.87085659 
H 14.6975949319 -1.0744179 -0.87085659 
C 18.5317501388 0.42056027 0.0 
H 18.5317501388 1.0744179 0.87085659 
H 18.5317501388 1.0744179 -0.87085659 
C 17.2536983988 -0.42056027 0.0 
H 17.2536983988 -1.0744179 0.87085659 
H 17.2536983988 -1.0744179 -0.87085659 
C 21.0878536058 0.42056027 0.0 
H 21.0878536058 1.0744179 0.87085659 
H 21.0878536058 1.0744179 -0.87085659 
C 19.8098018658 -0.42056027 0.0 
H 19.8098018658 -1.0744179 0.87085659 
H 19.8098018658 -1.0744179 -0.87085659 
C 23.6439570728 0.42056027 0.0 
H 23.6439570728 1.0744179 0.87085659 
H 23.6439570728 1.0744179 -0.87085659 
C 22.3659053328 -0.42056027 0.0 
H 22.3659053328 -1.0744179 0.87085659 
H 22.3659053328 -1.0744179 -0.87085659 
C 26.2000605398 0.42056027 0.0 
H 26.2000605398 1.0744179 0.87085659 
H 26.2000605398 1.0744179 -0.87085659 
C 24.9220087998 -0.42056027 0.0 
H 24.9220087998 -1.0744179 0.87085659 
H 24.9220087998 -1.0744179 -0.87085659 
C 28.7561640068 0.42056027 0.0 
H 28.7561640068 1.0744179 0.87085659 
H 28.7561640068 1.0744179 -0.87085659 
C 27.4781122668 -0.42056027 0.0 
H 27.4781122668 -1.0744179 0.87085659 
H 27.4781122668 -1.0744179 -0.87085659 
C 31.3122674737 0.42056027 0.0 
H 31.3122674737 1.0744179 0.87085659 
H 31.3122674737 1.0744179 -0.87085659 
C 30.0342157337 -0.42056027 0.0 
H 30.0342157337 -1.0744179 0.87085659 
H 30.0342157337 -1.0744179 -0.87085659 
C 33.8683709407 0.42056027 0.0 
H 33.8683709407 1.0744179 0.87085659 
H 33.8683709407 1.0744179 -0.87085659 
C 32.5903192007 -0.42056027 0.0 
H 32.5903192007 -1.0744179 0.87085659 
H 32.5903192007 -1.0744179 -0.87085659 
C 36.4244744077 0.42056027 0.0 
H 36.4244744077 1.0744179 0.87085659 
H 36.4244744077 1.0744179 -0.87085659 
C 35.1464226677 -0.42056027 0.0 
H 35.1464226677 -1.0744179 0.87085659 
H 35.1464226677 -1.0744179 -0.87085659 
C 38.9805778747 0.42056027 0.0 
H 38.9805778747 1.0744179 0.87085659 
H 38.9805778747 1.0744179 -0.87085659 
C 37.7025261347 -0.42056027 0.0 
H 37.7025261347 -1.0744179 0.87085659 
H 37.7025261347 -1.0744179 -0.87085659 
C 41.5366813417 0.42056027 0.0 
H 41.5366813417 1.0744179 0.87085659 
H 41.5366813417 1.0744179 -0.87085659 
C 40.2586296017 -0.42056027 0.0 
H 40.2586296017 -1.0744179 0.87085659 
H 40.2586296017 -1.0744179 -0.87085659 
C 44.0927848086 0.42056027 0.0 
H 44.0927848086 1.0744179 0.87085659 
H 44.0927848086 1.0744179 -0.87085659 
C 42.8147330686 -0.42056027 0.0 
H 42.8147330686 -1.0744179 0.87085659 
H 42.8147330686 -1.0744179 -0.87085659 
C 46.6488882756 0.42056027 0.0 
H 46.6488882756 1.0744179 0.87085659 
H 46.6488882756 1.0744179 -0.87085659 
C 45.3708365356 -0.42056027 0.0 
H 45.3708365356 -1.0744179 0.87085659 
H 45.3708365356 -1.0744179 -0.87085659 
C 49.2049917426 0.42056027 0.0 
H 49.2049917426 1.0744179 0.87085659 
H 49.2049917426 1.0744179 -0.87085659 
C 47.9269400026 -0.42056027 0.0 
H 47.9269400026 -1.0744179 0.87085659 
H 47.9269400026 -1.0744179 -0.87085659 
C 51.7610952096 0.42056027 0.0 
H 51.7610952096 1.0744179 0.87085659 
H 51.7610952096 1.0744179 -0.87085659 
C 50.4830434696 -0.42056027 0.0 
H 50.4830434696 -1.0744179 0.87085659 
H 50.4830434696 -1.0744179 -0.87085659 
C 54.3171986765 0.42056027 0.0 
H 54.3171986765 1.0744179 0.87085659 
H 54.3171986765 1.0744179 -0.87085659 
C 53.0391469365 -0.42056027 0.0 
H 53.0391469365 -1.0744179 0.87085659 
H 53.0391469365 -1.0744179 -0.87085659 
C 56.8733021435 0.42056027 0.0 
H 56.8733021435 1.0744179 0.87085659 
H 56.8733021435 1.0744179 -0.87085659 
C 55.5952504035 -0.42056027 0.0 
H 55.5952504035 -1.0744179 0.87085659 
H 55.5952504035 -1.0744179 -0.87085659 
C 59.4294056105 0.42056027 0.0 
H 59.4294056105 1.0744179 0.87085659 
H 59.4294056105 1.0744179 -0.87085659 
C 58.1513538705 -0.42056027 0.0 
H 58.1513538705 -1.0744179 0.87085659 
H 58.1513538705 -1.0744179 -0.87085659 
C 61.9855090775 0.42056027 0.0 
H 61.9855090775 1.0744179 0.87085659 
H 61.9855090775 1.0744179 -0.87085659 
C 60.7074573375 -0.42056027 0.0 
H 60.7074573375 -1.0744179 0.87085659 
H 60.7074573375 -1.0744179 -0.87085659 
C 64.5416125445 0.42056027 0.0 
H 64.5416125445 1.0744179 0.87085659 
H 64.5416125445 1.0744179 -0.87085659 
C 63.2635608045 -0.42056027 0.0 
H 63.2635608045 -1.0744179 0.87085659 
H 63.2635608045 -1.0744179 -0.87085659 
C 67.0977160114 0.42056027 0.0 
H 67.0977160114 1.0744179 0.87085659 
H 67.0977160114 1.0744179 -0.87085659 
C 65.8196642714 -0.42056027 0.0 
H 65.8196642714 -1.0744179 0.87085659 
H 65.8196642714 -1.0744179 -0.87085659 
C 69.6538194784 0.42056027 0.0 
H 69.6538194784 1.0744179 0.87085659 
H 69.6538194784 1.0744179 -0.87085659 
C 68.3757677384 -0.42056027 0.0 
H 68.3757677384 -1.0744179 0.87085659 
H 68.3757677384 -1.0744179 -0.87085659 
C 72.2099229454 0.42056027 0.0 
H 72.2099229454 1.0744179 0.87085659 
H 72.2099229454 1.0744179 -0.87085659 
C 70.9318712054 -0.42056027 0.0 
H 70.9318712054 -1.0744179 0.87085659 
H 70.9318712054 -1.0744179 -0.87085659 
C 74.7660264124 0.42056027 0.0 
H 74.7660264124 1.0744179 0.87085659 
H 74.7660264124 1.0744179 -0.87085659 
C 73.4879746724 -0.42056027 0.0 
H 73.4879746724 -1.0744179 0.87085659 
H 73.4879746724 -1.0744179 -0.87085659 
C 77.3221298794 0.42056027 0.0 
H 77.3221298794 1.0744179 0.87085659 
H 77.3221298794 1.0744179 -0.87085659 
C 76.0440781394 -0.42056027 0.0 
H 76.0440781394 -1.0744179 0.87085659 
H 76.0440781394 -1.0744179 -0.87085659 
C 79.8782333463 0.42056027 0.0 
H 79.8782333463 1.0744179 0.87085659 
H 79.8782333463 1.0744179 -0.87085659 
C 78.6001816063 -0.42056027 0.0 
H 78.6001816063 -1.0744179 0.87085659 
H 78.6001816063 -1.0744179 -0.87085659 
C 82.4343368133 0.42056027 0.0 
H 82.4343368133 1.0744179 0.87085659 
H 82.4343368133 1.0744179 -0.87085659 
C 81.1562850733 -0.42056027 0.0 
H 81.1562850733 -1.0744179 0.87085659 
H 81.1562850733 -1.0744179 -0.87085659 
C 84.9904402803 0.42056027 0.0 
H 84.9904402803 1.0744179 0.87085659 
H 84.9904402803 1.0744179 -0.87085659 
C 83.7123885403 -0.42056027 0.0 
H 83.7123885403 -1.0744179 0.87085659 
H 83.7123885403 -1.0744179 -0.87085659 
C 87.5465437473 0.42056027 0.0 
H 87.5465437473 1.0744179 0.87085659 
H 87.5465437473 1.0744179 -0.87085659 
C 86.2684920073 -0.42056027 0.0 
H 86.2684920073 -1.0744179 0.87085659 
H 86.2684920073 -1.0744179 -0.87085659 
C 90.1026472142 0.42056027 0.0 
H 90.1026472142 1.0744179 0.87085659 
H 90.1026472142 1.0744179 -0.87085659 
C 88.8245954742 -0.42056027 0.0 
H 88.8245954742 -1.0744179 0.87085659 
H 88.8245954742 -1.0744179 -0.87085659 
C 92.6587506812 0.42056027 0.0 
H 92.6587506812 1.0744179 0.87085659 
H 92.6587506812 1.0744179 -0.87085659 
C 91.3806989412 -0.42056027 0.0 
H 91.3806989412 -1.0744179 0.87085659 
H 91.3806989412 -1.0744179 -0.87085659 
C 95.2148541482 0.42056027 0.0 
H 95.2148541482 1.0744179 0.87085659 
H 95.2148541482 1.0744179 -0.87085659 
C 93.9368024082 -0.42056027 0.0 
H 93.9368024082 -1.0744179 0.87085659 
H 93.9368024082 -1.0744179 -0.87085659 
C 97.7709576152 0.42056027 0.0 
H 97.7709576152 1.0744179 0.87085659 
H 97.7709576152 1.0744179 -0.87085659 
C 96.4929058752 -0.42056027 0.0 
H 96.4929058752 -1.0744179 0.87085659 
H 96.4929058752 -1.0744179 -0.87085659 
C 100.327061082 0.42056027 0.0 
H 100.327061082 1.0744179 0.87085659 
H 100.327061082 1.0744179 -0.87085659 
C 99.0490093422 -0.42056027 0.0 
H 99.0490093422 -1.0744179 0.87085659 
H 99.0490093422 -1.0744179 -0.87085659 
C 102.883164549 0.42056027 0.0 
H 102.883164549 1.0744179 0.87085659 
H 102.883164549 1.0744179 -0.87085659 
C 101.605112809 -0.42056027 0.0 
H 101.605112809 -1.0744179 0.87085659 
H 101.605112809 -1.0744179 -0.87085659 
C 105.439268016 0.42056027 0.0 
H 105.439268016 1.0744179 0.87085659 
H 105.439268016 1.0744179 -0.87085659 
C 104.161216276 -0.42056027 0.0 
H 104.161216276 -1.0744179 0.87085659 
H 104.161216276 -1.0744179 -0.87085659 
C 107.995371483 0.42056027 0.0 
H 107.995371483 1.0744179 0.87085659 
H 107.995371483 1.0744179 -0.87085659 
C 106.717319743 -0.42056027 0.0 
H 106.717319743 -1.0744179 0.87085659 
H 106.717319743 -1.0744179 -0.87085659 
C 110.55147495 0.42056027 0.0 
H 110.55147495 1.0744179 0.87085659 
H 110.55147495 1.0744179 -0.87085659 
C 109.27342321 -0.42056027 0.0 
H 109.27342321 -1.0744179 0.87085659 
H 109.27342321 -1.0744179 -0.87085659 
C 113.107578417 0.42056027 0.0 
H 113.107578417 1.0744179 0.87085659 
H 113.107578417 1.0744179 -0.87085659 
C 111.829526677 -0.42056027 0.0 
H 111.829526677 -1.0744179 0.87085659 
H 111.829526677 -1.0744179 -0.87085659 
C 115.663681884 0.42056027 0.0 
H 115.663681884 1.0744179 0.87085659 
H 115.663681884 1.0744179 -0.87085659 
C 114.385630144 -0.42056027 0.0 
H 114.385630144 -1.0744179 0.87085659 
H 114.385630144 -1.0744179 -0.87085659 
C 118.219785351 0.42056027 0.0 
H 118.219785351 1.0744179 0.87085659 
H 118.219785351 1.0744179 -0.87085659 
C 116.941733611 -0.42056027 0.0 
H 116.941733611 -1.0744179 0.87085659 
H 116.941733611 -1.0744179 -0.87085659 
C 120.775888818 0.42056027 0.0 
H 120.775888818 1.0744179 0.87085659 
H 120.775888818 1.0744179 -0.87085659 
C 119.497837078 -0.42056027 0.0 
H 119.497837078 -1.0744179 0.87085659 
H 119.497837078 -1.0744179 -0.87085659 
C 123.331992285 0.42056027 0.0 
H 123.331992285 1.0744179 0.87085659 
H 123.331992285 1.0744179 -0.87085659 
C 122.053940545 -0.42056027 0.0 
H 122.053940545 -1.0744179 0.87085659 
H 122.053940545 -1.0744179 -0.87085659 
C 125.888095752 0.42056027 0.0 
H 125.888095752 1.0744179 0.87085659 
H 125.888095752 1.0744179 -0.87085659 
C 124.610044012 -0.42056027 0.0 
H 124.610044012 -1.0744179 0.87085659 
H 124.610044012 -1.0744179 -0.87085659 
C 128.444199219 0.42056027 0.0 
H 128.444199219 1.0744179 0.87085659 
H 128.444199219 1.0744179 -0.87085659 
C 127.166147479 -0.42056027 0.0 
H 127.166147479 -1.0744179 0.87085659 
H 127.166147479 -1.0744179 -0.87085659 
C 131.000302686 0.42056027 0.0 
H 131.000302686 1.0744179 0.87085659 
H 131.000302686 1.0744179 -0.87085659 
C 129.722250946 -0.42056027 0.0 
H 129.722250946 -1.0744179 0.87085659 
H 129.722250946 -1.0744179 -0.87085659 
C 133.556406153 0.42056027 0.0 
H 133.556406153 1.0744179 0.87085659 
H 133.556406153 1.0744179 -0.87085659 
C 132.278354413 -0.42056027 0.0 
H 132.278354413 -1.0744179 0.87085659 
H 132.278354413 -1.0744179 -0.87085659 
C 136.11250962 0.42056027 0.0 
H 136.11250962 1.0744179 0.87085659 
H 136.11250962 1.0744179 -0.87085659 
C 134.83445788 -0.42056027 0.0 
H 134.83445788 -1.0744179 0.87085659 
H 134.83445788 -1.0744179 -0.87085659 
C 138.668613087 0.42056027 0.0 
H 138.668613087 1.0744179 0.87085659 
H 138.668613087 1.0744179 -0.87085659 
C 137.390561347 -0.42056027 0.0 
H 137.390561347 -1.0744179 0.87085659 
H 137.390561347 -1.0744179 -0.87085659 
C 141.224716554 0.42056027 0.0 
H 141.224716554 1.0744179 0.87085659 
H 141.224716554 1.0744179 -0.87085659 
C 139.946664814 -0.42056027 0.0 
H 139.946664814 -1.0744179 0.87085659 
H 139.946664814 -1.0744179 -0.87085659 
C 143.780820021 0.42056027 0.0 
H 143.780820021 1.0744179 0.87085659 
H 143.780820021 1.0744179 -0.87085659 
C 142.502768281 -0.42056027 0.0 
H 142.502768281 -1.0744179 0.87085659 
H 142.502768281 -1.0744179 -0.87085659 
C 146.336923488 0.42056027 0.0 
H 146.336923488 1.0744179 0.87085659 
H 146.336923488 1.0744179 -0.87085659 
C 145.058871748 -0.42056027 0.0 
H 145.058871748 -1.0744179 0.87085659 
H 145.058871748 -1.0744179 -0.87085659 
C 148.893026955 0.42056027 0.0 
H 148.893026955 1.0744179 0.87085659 
H 148.893026955 1.0744179 -0.87085659 
C 147.614975215 -0.42056027 0.0 
H 147.614975215 -1.0744179 0.87085659 
H 147.614975215 -1.0744179 -0.87085659 
C 151.449130422 0.42056027 0.0 
H 151.449130422 1.0744179 0.87085659 
H 151.449130422 1.0744179 -0.87085659 
C 150.171078682 -0.42056027 0.0 
H 150.171078682 -1.0744179 0.87085659 
H 150.171078682 -1.0744179 -0.87085659 
C 154.005233889 0.42056027 0.0 
H 154.005233889 1.0744179 0.87085659 
H 154.005233889 1.0744179 -0.87085659 
C 152.727182149 -0.42056027 0.0 
H 152.727182149 -1.0744179 0.87085659 
H 152.727182149 -1.0744179 -0.87085659 
C 156.561337356 0.42056027 0.0 
H 156.561337356 1.0744179 0.87085659 
H 156.561337356 1.0744179 -0.87085659 
C 155.283285616 -0.42056027 0.0 
H 155.283285616 -1.0744179 0.87085659 
H 155.283285616 -1.0744179 -0.87085659 
C 159.117440823 0.42056027 0.0 
H 159.117440823 1.0744179 0.87085659 
H 159.117440823 1.0744179 -0.87085659 
C 157.839389083 -0.42056027 0.0 
H 157.839389083 -1.0744179 0.87085659 
H 157.839389083 -1.0744179 -0.87085659 
C 161.67354429 0.42056027 0.0 
H 161.67354429 1.0744179 0.87085659 
H 161.67354429 1.0744179 -0.87085659 
C 160.39549255 -0.42056027 0.0 
H 160.39549255 -1.0744179 0.87085659 
H 160.39549255 -1.0744179 -0.87085659 
C 164.229647757 0.42056027 0.0 
H 164.229647757 1.0744179 0.87085659 
H 164.229647757 1.0744179 -0.87085659 
C 162.951596017 -0.42056027 0.0 
H 162.951596017 -1.0744179 0.87085659 
H 162.951596017 -1.0744179 -0.87085659 
C 166.785751224 0.42056027 0.0 
H 166.785751224 1.0744179 0.87085659 
H 166.785751224 1.0744179 -0.87085659 
C 165.507699484 -0.42056027 0.0 
H 165.507699484 -1.0744179 0.87085659 
H 165.507699484 -1.0744179 -0.87085659 
C 169.341854691 0.42056027 0.0 
H 169.341854691 1.0744179 0.87085659 
H 169.341854691 1.0744179 -0.87085659 
C 168.063802951 -0.42056027 0.0 
H 168.063802951 -1.0744179 0.87085659 
H 168.063802951 -1.0744179 -0.87085659 
C 171.897958158 0.42056027 0.0 
H 171.897958158 1.0744179 0.87085659 
H 171.897958158 1.0744179 -0.87085659 
C 170.619906418 -0.42056027 0.0 
H 170.619906418 -1.0744179 0.87085659 
H 170.619906418 -1.0744179 -0.87085659 
C 174.454061625 0.42056027 0.0 
H 174.454061625 1.0744179 0.87085659 
H 174.454061625 1.0744179 -0.87085659 
C 173.176009885 -0.42056027 0.0 
H 173.176009885 -1.0744179 0.87085659 
H 173.176009885 -1.0744179 -0.87085659 
C 177.010165092 0.42056027 0.0 
H 177.010165092 1.0744179 0.87085659 
H 177.010165092 1.0744179 -0.87085659 
C 175.732113352 -0.42056027 0.0 
H 175.732113352 -1.0744179 0.87085659 
H 175.732113352 -1.0744179 -0.87085659 
C 179.566268558 0.42056027 0.0 
H 179.566268558 1.0744179 0.87085659 
H 179.566268558 1.0744179 -0.87085659 
C 178.288216818 -0.42056027 0.0 
H 178.288216818 -1.0744179 0.87085659 
H 178.288216818 -1.0744179 -0.87085659 
C 182.122372025 0.42056027 0.0 
H 182.122372025 1.0744179 0.87085659 
H 182.122372025 1.0744179 -0.87085659 
C 180.844320285 -0.42056027 0.0 
H 180.844320285 -1.0744179 0.87085659 
H 180.844320285 -1.0744179 -0.87085659 
C 184.678475492 0.42056027 0.0 
H 184.678475492 1.0744179 0.87085659 
H 184.678475492 1.0744179 -0.87085659 
C 183.400423752 -0.42056027 0.0 
H 183.400423752 -1.0744179 0.87085659 
H 183.400423752 -1.0744179 -0.87085659 
C 187.234578959 0.42056027 0.0 
H 187.234578959 1.0744179 0.87085659 
H 187.234578959 1.0744179 -0.87085659 
C 185.956527219 -0.42056027 0.0 
H 185.956527219 -1.0744179 0.87085659 
H 185.956527219 -1.0744179 -0.87085659 
C 189.790682426 0.42056027 0.0 
H 189.790682426 1.0744179 0.87085659 
H 189.790682426 1.0744179 -0.87085659 
C 188.512630686 -0.42056027 0.0 
H 188.512630686 -1.0744179 0.87085659 
H 188.512630686 -1.0744179 -0.87085659 
C 192.346785893 0.42056027 0.0 
H 192.346785893 1.0744179 0.87085659 
H 192.346785893 1.0744179 -0.87085659 
C 191.068734153 -0.42056027 0.0 
H 191.068734153 -1.0744179 0.87085659 
H 191.068734153 -1.0744179 -0.87085659 
C 194.90288936 0.42056027 0.0 
H 194.90288936 1.0744179 0.87085659 
H 194.90288936 1.0744179 -0.87085659 
C 193.62483762 -0.42056027 0.0 
H 193.62483762 -1.0744179 0.87085659 
H 193.62483762 -1.0744179 -0.87085659 
C 197.458992827 0.42056027 0.0 
H 197.458992827 1.0744179 0.87085659 
H 197.458992827 1.0744179 -0.87085659 
C 196.180941087 -0.42056027 0.0 
H 196.180941087 -1.0744179 0.87085659 
H 196.180941087 -1.0744179 -0.87085659 
C 200.015096294 0.42056027 0.0 
H 200.015096294 1.0744179 0.87085659 
H 200.015096294 1.0744179 -0.87085659 
C 198.737044554 -0.42056027 0.0 
H 198.737044554 -1.0744179 0.87085659 
H 198.737044554 -1.0744179 -0.87085659 
C 202.571199761 0.42056027 0.0 
H 202.571199761 1.0744179 0.87085659 
H 202.571199761 1.0744179 -0.87085659 
C 201.293148021 -0.42056027 0.0 
H 201.293148021 -1.0744179 0.87085659 
H 201.293148021 -1.0744179 -0.87085659 
C 205.127303228 0.42056027 0.0 
H 205.127303228 1.0744179 0.87085659 
H 205.127303228 1.0744179 -0.87085659 
C 203.849251488 -0.42056027 0.0 
H 203.849251488 -1.0744179 0.87085659 
H 203.849251488 -1.0744179 -0.87085659 
C 207.683406695 0.42056027 0.0 
H 207.683406695 1.0744179 0.87085659 
H 207.683406695 1.0744179 -0.87085659 
C 206.405354955 -0.42056027 0.0 
H 206.405354955 -1.0744179 0.87085659 
H 206.405354955 -1.0744179 -0.87085659 
C 210.239510162 0.42056027 0.0 
H 210.239510162 1.0744179 0.87085659 
H 210.239510162 1.0744179 -0.87085659 
C 208.961458422 -0.42056027 0.0 
H 208.961458422 -1.0744179 0.87085659 
H 208.961458422 -1.0744179 -0.87085659 
C 212.795613629 0.42056027 0.0 
H 212.795613629 1.0744179 0.87085659 
H 212.795613629 1.0744179 -0.87085659 
C 211.517561889 -0.42056027 0.0 
H 211.517561889 -1.0744179 0.87085659 
H 211.517561889 -1.0744179 -0.87085659 
C 215.351717096 0.42056027 0.0 
H 215.351717096 1.0744179 0.87085659 
H 215.351717096 1.0744179 -0.87085659 
C 214.073665356 -0.42056027 0.0 
H 214.073665356 -1.0744179 0.87085659 
H 214.073665356 -1.0744179 -0.87085659 
C 217.907820563 0.42056027 0.0 
H 217.907820563 1.0744179 0.87085659 
H 217.907820563 1.0744179 -0.87085659 
C 216.629768823 -0.42056027 0.0 
H 216.629768823 -1.0744179 0.87085659 
H 216.629768823 -1.0744179 -0.87085659 
C 220.46392403 0.42056027 0.0 
H 220.46392403 1.0744179 0.87085659 
H 220.46392403 1.0744179 -0.87085659 
C 219.18587229 -0.42056027 0.0 
H 219.18587229 -1.0744179 0.87085659 
H 219.18587229 -1.0744179 -0.87085659 
C 223.020027497 0.42056027 0.0 
H 223.020027497 1.0744179 0.87085659 
H 223.020027497 1.0744179 -0.87085659 
C 221.741975757 -0.42056027 0.0 
H 221.741975757 -1.0744179 0.87085659 
H 221.741975757 -1.0744179 -0.87085659 
C 225.576130964 0.42056027 0.0 
H 225.576130964 1.0744179 0.87085659 
H 225.576130964 1.0744179 -0.87085659 
C 224.298079224 -0.42056027 0.0 
H 224.298079224 -1.0744179 0.87085659 
H 224.298079224 -1.0744179 -0.87085659 
C 228.132234431 0.42056027 0.0 
H 228.132234431 1.0744179 0.87085659 
H 228.132234431 1.0744179 -0.87085659 
C 226.854182691 -0.42056027 0.0 
H 226.854182691 -1.0744179 0.87085659 
H 226.854182691 -1.0744179 -0.87085659 
C 230.688337898 0.42056027 0.0 
H 230.688337898 1.0744179 0.87085659 
H 230.688337898 1.0744179 -0.87085659 
C 229.410286158 -0.42056027 0.0 
H 229.410286158 -1.0744179 0.87085659 
H 229.410286158 -1.0744179 -0.87085659 
C 233.244441365 0.42056027 0.0 
H 233.244441365 1.0744179 0.87085659 
H 233.244441365 1.0744179 -0.87085659 
C 231.966389625 -0.42056027 0.0 
H 231.966389625 -1.0744179 0.87085659 
H 231.966389625 -1.0744179 -0.87085659 
C 235.800544832 0.42056027 0.0 
H 235.800544832 1.0744179 0.87085659 
H 235.800544832 1.0744179 -0.87085659 
C 234.522493092 -0.42056027 0.0 
H 234.522493092 -1.0744179 0.87085659 
H 234.522493092 -1.0744179 -0.87085659 
C 238.356648299 0.42056027 0.0 
H 238.356648299 1.0744179 0.87085659 
H 238.356648299 1.0744179 -0.87085659 
C 237.078596559 -0.42056027 0.0 
H 237.078596559 -1.0744179 0.87085659 
H 237.078596559 -1.0744179 -0.87085659 
C 240.912751766 0.42056027 0.0 
H 240.912751766 1.0744179 0.87085659 
H 240.912751766 1.0744179 -0.87085659 
C 239.634700026 -0.42056027 0.0 
H 239.634700026 -1.0744179 0.87085659 
H 239.634700026 -1.0744179 -0.87085659 
C 243.468855233 0.42056027 0.0 
H 243.468855233 1.0744179 0.87085659 
H 243.468855233 1.0744179 -0.87085659 
C 242.190803493 -0.42056027 0.0 
H 242.190803493 -1.0744179 0.87085659 
H 242.190803493 -1.0744179 -0.87085659 
C 246.0249587 0.42056027 0.0 
H 246.0249587 1.0744179 0.87085659 
H 246.0249587 1.0744179 -0.87085659 
C 244.74690696 -0.42056027 0.0 
H 244.74690696 -1.0744179 0.87085659 
H 244.74690696 -1.0744179 -0.87085659 
C 248.581062167 0.42056027 0.0 
H 248.581062167 1.0744179 0.87085659 
H 248.581062167 1.0744179 -0.87085659 
C 247.303010427 -0.42056027 0.0 
H 247.303010427 -1.0744179 0.87085659 
H 247.303010427 -1.0744179 -0.87085659 
C 251.137165634 0.42056027 0.0 
H 251.137165634 1.0744179 0.87085659 
H 251.137165634 1.0744179 -0.87085659 
C 249.859113894 -0.42056027 0.0 
H 249.859113894 -1.0744179 0.87085659 
H 249.859113894 -1.0744179 -0.87085659 
C 253.693269101 0.42056027 0.0 
H 253.693269101 1.0744179 0.87085659 
H 253.693269101 1.0744179 -0.87085659 
C 252.415217361 -0.42056027 0.0 
H 252.415217361 -1.0744179 0.87085659 
H 252.415217361 -1.0744179 -0.87085659 
C 256.249372568 0.42056027 0.0 
H 256.249372568 1.0744179 0.87085659 
H 256.249372568 1.0744179 -0.87085659 
C 254.971320828 -0.42056027 0.0 
H 254.971320828 -1.0744179 0.87085659 
H 254.971320828 -1.0744179 -0.87085659 
C 258.805476035 0.42056027 0.0 
H 258.805476035 1.0744179 0.87085659 
H 258.805476035 1.0744179 -0.87085659 
C 257.527424295 -0.42056027 0.0 
H 257.527424295 -1.0744179 0.87085659 
H 257.527424295 -1.0744179 -0.87085659 
C 261.361579502 0.42056027 0.0 
H 261.361579502 1.0744179 0.87085659 
H 261.361579502 1.0744179 -0.87085659 
C 260.083527762 -0.42056027 0.0 
H 260.083527762 -1.0744179 0.87085659 
H 260.083527762 -1.0744179 -0.87085659 
C 263.917682969 0.42056027 0.0 
H 263.917682969 1.0744179 0.87085659 
H 263.917682969 1.0744179 -0.87085659 
C 262.639631229 -0.42056027 0.0 
H 262.639631229 -1.0744179 0.87085659 
H 262.639631229 -1.0744179 -0.87085659 
C 266.473786436 0.42056027 0.0 
H 266.473786436 1.0744179 0.87085659 
H 266.473786436 1.0744179 -0.87085659 
C 265.195734696 -0.42056027 0.0 
H 265.195734696 -1.0744179 0.87085659 
H 265.195734696 -1.0744179 -0.87085659 
C 269.029889903 0.42056027 0.0 
H 269.029889903 1.0744179 0.87085659 
H 269.029889903 1.0744179 -0.87085659 
C 267.751838163 -0.42056027 0.0 
H 267.751838163 -1.0744179 0.87085659 
H 267.751838163 -1.0744179 -0.87085659 
C 271.58599337 0.42056027 0.0 
H 271.58599337 1.0744179 0.87085659 
H 271.58599337 1.0744179 -0.87085659 
C 270.30794163 -0.42056027 0.0 
H 270.30794163 -1.0744179 0.87085659 
H 270.30794163 -1.0744179 -0.87085659 
C 274.142096837 0.42056027 0.0 
H 274.142096837 1.0744179 0.87085659 
H 274.142096837 1.0744179 -0.87085659 
C 272.864045097 -0.42056027 0.0 
H 272.864045097 -1.0744179 0.87085659 
H 272.864045097 -1.0744179 -0.87085659 
C 276.698200304 0.42056027 0.0 
H 276.698200304 1.0744179 0.87085659 
H 276.698200304 1.0744179 -0.87085659 
C 275.420148564 -0.42056027 0.0 
H 275.420148564 -1.0744179 0.87085659 
H 275.420148564 -1.0744179 -0.87085659 
C 279.254303771 0.42056027 0.0 
H 279.254303771 1.0744179 0.87085659 
H 279.254303771 1.0744179 -0.87085659 
C 277.976252031 -0.42056027 0.0 
H 277.976252031 -1.0744179 0.87085659 
H 277.976252031 -1.0744179 -0.87085659 
C 281.810407238 0.42056027 0.0 
H 281.810407238 1.0744179 0.87085659 
H 281.810407238 1.0744179 -0.87085659 
C 280.532355498 -0.42056027 0.0 
H 280.532355498 -1.0744179 0.87085659 
H 280.532355498 -1.0744179 -0.87085659 
C 284.366510705 0.42056027 0.0 
H 284.366510705 1.0744179 0.87085659 
H 284.366510705 1.0744179 -0.87085659 
C 283.088458965 -0.42056027 0.0 
H 283.088458965 -1.0744179 0.87085659 
H 283.088458965 -1.0744179 -0.87085659 
C 286.922614172 0.42056027 0.0 
H 286.922614172 1.0744179 0.87085659 
H 286.922614172 1.0744179 -0.87085659 
C 285.644562432 -0.42056027 0.0 
H 285.644562432 -1.0744179 0.87085659 
H 285.644562432 -1.0744179 -0.87085659 
C 289.478717639 0.42056027 0.0 
H 289.478717639 1.0744179 0.87085659 
H 289.478717639 1.0744179 -0.87085659 
C 288.200665899 -0.42056027 0.0 
H 288.200665899 -1.0744179 0.87085659 
H 288.200665899 -1.0744179 -0.87085659 
C 292.034821106 0.42056027 0.0 
H 292.034821106 1.0744179 0.87085659 
H 292.034821106 1.0744179 -0.87085659 
C 290.756769366 -0.42056027 0.0 
H 290.756769366 -1.0744179 0.87085659 
H 290.756769366 -1.0744179 -0.87085659 
C 294.590924573 0.42056027 0.0 
H 294.590924573 1.0744179 0.87085659 
H 294.590924573 1.0744179 -0.87085659 
C 293.312872833 -0.42056027 0.0 
H 293.312872833 -1.0744179 0.87085659 
H 293.312872833 -1.0744179 -0.87085659 
C 297.14702804 0.42056027 0.0 
H 297.14702804 1.0744179 0.87085659 
H 297.14702804 1.0744179 -0.87085659 
C 295.8689763 -0.42056027 0.0 
H 295.8689763 -1.0744179 0.87085659 
H 295.8689763 -1.0744179 -0.87085659 
C 299.703131506 0.42056027 0.0 
H 299.703131506 1.0744179 0.87085659 
H 299.703131506 1.0744179 -0.87085659 
C 298.425079766 -0.42056027 0.0 
H 298.425079766 -1.0744179 0.87085659 
H 298.425079766 -1.0744179 -0.87085659 
C 302.259234973 0.42056027 0.0 
H 302.259234973 1.0744179 0.87085659 
H 302.259234973 1.0744179 -0.87085659 
C 300.981183233 -0.42056027 0.0 
H 300.981183233 -1.0744179 0.87085659 
H 300.981183233 -1.0744179 -0.87085659 
C 304.81533844 0.42056027 0.0 
H 304.81533844 1.0744179 0.87085659 
H 304.81533844 1.0744179 -0.87085659 
C 303.5372867 -0.42056027 0.0 
H 303.5372867 -1.0744179 0.87085659 
H 303.5372867 -1.0744179 -0.87085659 
C 307.371441907 0.42056027 0.0 
H 307.371441907 1.0744179 0.87085659 
H 307.371441907 1.0744179 -0.87085659 
C 306.093390167 -0.42056027 0.0 
H 306.093390167 -1.0744179 0.87085659 
H 306.093390167 -1.0744179 -0.87085659 
C 309.927545374 0.42056027 0.0 
H 309.927545374 1.0744179 0.87085659 
H 309.927545374 1.0744179 -0.87085659 
C 308.649493634 -0.42056027 0.0 
H 308.649493634 -1.0744179 0.87085659 
H 308.649493634 -1.0744179 -0.87085659 
C 312.483648841 0.42056027 0.0 
H 312.483648841 1.0744179 0.87085659 
H 312.483648841 1.0744179 -0.87085659 
C 311.205597101 -0.42056027 0.0 
H 311.205597101 -1.0744179 0.87085659 
H 311.205597101 -1.0744179 -0.87085659 
C 315.039752308 0.42056027 0.0 
H 315.039752308 1.0744179 0.87085659 
H 315.039752308 1.0744179 -0.87085659 
C 313.761700568 -0.42056027 0.0 
H 313.761700568 -1.0744179 0.87085659 
H 313.761700568 -1.0744179 -0.87085659 
C 317.595855775 0.42056027 0.0 
H 317.595855775 1.0744179 0.87085659 
H 317.595855775 1.0744179 -0.87085659 
C 316.317804035 -0.42056027 0.0 
H 316.317804035 -1.0744179 0.87085659 
H 316.317804035 -1.0744179 -0.87085659 
C 320.151959242 0.42056027 0.0 
H 320.151959242 1.0744179 0.87085659 
H 320.151959242 1.0744179 -0.87085659 
C 318.873907502 -0.42056027 0.0 
H 318.873907502 -1.0744179 0.87085659 
H 318.873907502 -1.0744179 -0.87085659 
C 322.708062709 0.42056027 0.0 
H 322.708062709 1.0744179 0.87085659 
H 322.708062709 1.0744179 -0.87085659 
C 321.430010969 -0.42056027 0.0 
H 321.430010969 -1.0744179 0.87085659 
H 321.430010969 -1.0744179 -0.87085659 
C 325.264166176 0.42056027 0.0 
H 325.264166176 1.0744179 0.87085659 
H 325.264166176 1.0744179 -0.87085659 
C 323.986114436 -0.42056027 0.0 
H 323.986114436 -1.0744179 0.87085659 
H 323.986114436 -1.0744179 -0.87085659 
