192
CC bond length:2.55610346698
C 0.63902587 0.42056027 0.0 
H 0.63902587 1.0744179 0.87085659 
H 0.63902587 1.0744179 -0.87085659 
C -0.63902587 -0.42056027 0.0 
H -0.63902587 -1.0744179 0.87085659 
H -0.63902587 -1.0744179 -0.87085659 
C 3.19512933698 0.42056027 0.0 
H 3.19512933698 1.0744179 0.87085659 
H 3.19512933698 1.0744179 -0.87085659 
C 1.91707759698 -0.42056027 0.0 
H 1.91707759698 -1.0744179 0.87085659 
H 1.91707759698 -1.0744179 -0.87085659 
C 5.75123280396 0.42056027 0.0 
H 5.75123280396 1.0744179 0.87085659 
H 5.75123280396 1.0744179 -0.87085659 
C 4.47318106396 -0.42056027 0.0 
H 4.47318106396 -1.0744179 0.87085659 
H 4.47318106396 -1.0744179 -0.87085659 
C 8.30733627094 0.42056027 0.0 
H 8.30733627094 1.0744179 0.87085659 
H 8.30733627094 1.0744179 -0.87085659 
C 7.02928453094 -0.42056027 0.0 
H 7.02928453094 -1.0744179 0.87085659 
H 7.02928453094 -1.0744179 -0.87085659 
C 10.8634397379 0.42056027 0.0 
H 10.8634397379 1.0744179 0.87085659 
H 10.8634397379 1.0744179 -0.87085659 
C 9.58538799791 -0.42056027 0.0 
H 9.58538799791 -1.0744179 0.87085659 
H 9.58538799791 -1.0744179 -0.87085659 
C 13.4195432049 0.42056027 0.0 
H 13.4195432049 1.0744179 0.87085659 
H 13.4195432049 1.0744179 -0.87085659 
C 12.1414914649 -0.42056027 0.0 
H 12.1414914649 -1.0744179 0.87085659 
H 12.1414914649 -1.0744179 -0.87085659 
C 15.9756466719 0.42056027 0.0 
H 15.9756466719 1.0744179 0.87085659 
H 15.9756466719 1.0744179 -0.87085659 
C 14.6975949319 -0.42056027 0.0 
H 14.6975949319 -1.0744179 0.87085659 
H 14.6975949319 -1.0744179 -0.87085659 
C 18.5317501388 0.42056027 0.0 
H 18.5317501388 1.0744179 0.87085659 
H 18.5317501388 1.0744179 -0.87085659 
C 17.2536983988 -0.42056027 0.0 
H 17.2536983988 -1.0744179 0.87085659 
H 17.2536983988 -1.0744179 -0.87085659 
C 21.0878536058 0.42056027 0.0 
H 21.0878536058 1.0744179 0.87085659 
H 21.0878536058 1.0744179 -0.87085659 
C 19.8098018658 -0.42056027 0.0 
H 19.8098018658 -1.0744179 0.87085659 
H 19.8098018658 -1.0744179 -0.87085659 
C 23.6439570728 0.42056027 0.0 
H 23.6439570728 1.0744179 0.87085659 
H 23.6439570728 1.0744179 -0.87085659 
C 22.3659053328 -0.42056027 0.0 
H 22.3659053328 -1.0744179 0.87085659 
H 22.3659053328 -1.0744179 -0.87085659 
C 26.2000605398 0.42056027 0.0 
H 26.2000605398 1.0744179 0.87085659 
H 26.2000605398 1.0744179 -0.87085659 
C 24.9220087998 -0.42056027 0.0 
H 24.9220087998 -1.0744179 0.87085659 
H 24.9220087998 -1.0744179 -0.87085659 
C 28.7561640068 0.42056027 0.0 
H 28.7561640068 1.0744179 0.87085659 
H 28.7561640068 1.0744179 -0.87085659 
C 27.4781122668 -0.42056027 0.0 
H 27.4781122668 -1.0744179 0.87085659 
H 27.4781122668 -1.0744179 -0.87085659 
C 31.3122674737 0.42056027 0.0 
H 31.3122674737 1.0744179 0.87085659 
H 31.3122674737 1.0744179 -0.87085659 
C 30.0342157337 -0.42056027 0.0 
H 30.0342157337 -1.0744179 0.87085659 
H 30.0342157337 -1.0744179 -0.87085659 
C 33.8683709407 0.42056027 0.0 
H 33.8683709407 1.0744179 0.87085659 
H 33.8683709407 1.0744179 -0.87085659 
C 32.5903192007 -0.42056027 0.0 
H 32.5903192007 -1.0744179 0.87085659 
H 32.5903192007 -1.0744179 -0.87085659 
C 36.4244744077 0.42056027 0.0 
H 36.4244744077 1.0744179 0.87085659 
H 36.4244744077 1.0744179 -0.87085659 
C 35.1464226677 -0.42056027 0.0 
H 35.1464226677 -1.0744179 0.87085659 
H 35.1464226677 -1.0744179 -0.87085659 
C 38.9805778747 0.42056027 0.0 
H 38.9805778747 1.0744179 0.87085659 
H 38.9805778747 1.0744179 -0.87085659 
C 37.7025261347 -0.42056027 0.0 
H 37.7025261347 -1.0744179 0.87085659 
H 37.7025261347 -1.0744179 -0.87085659 
C 41.5366813417 0.42056027 0.0 
H 41.5366813417 1.0744179 0.87085659 
H 41.5366813417 1.0744179 -0.87085659 
C 40.2586296017 -0.42056027 0.0 
H 40.2586296017 -1.0744179 0.87085659 
H 40.2586296017 -1.0744179 -0.87085659 
C 44.0927848086 0.42056027 0.0 
H 44.0927848086 1.0744179 0.87085659 
H 44.0927848086 1.0744179 -0.87085659 
C 42.8147330686 -0.42056027 0.0 
H 42.8147330686 -1.0744179 0.87085659 
H 42.8147330686 -1.0744179 -0.87085659 
C 46.6488882756 0.42056027 0.0 
H 46.6488882756 1.0744179 0.87085659 
H 46.6488882756 1.0744179 -0.87085659 
C 45.3708365356 -0.42056027 0.0 
H 45.3708365356 -1.0744179 0.87085659 
H 45.3708365356 -1.0744179 -0.87085659 
C 49.2049917426 0.42056027 0.0 
H 49.2049917426 1.0744179 0.87085659 
H 49.2049917426 1.0744179 -0.87085659 
C 47.9269400026 -0.42056027 0.0 
H 47.9269400026 -1.0744179 0.87085659 
H 47.9269400026 -1.0744179 -0.87085659 
C 51.7610952096 0.42056027 0.0 
H 51.7610952096 1.0744179 0.87085659 
H 51.7610952096 1.0744179 -0.87085659 
C 50.4830434696 -0.42056027 0.0 
H 50.4830434696 -1.0744179 0.87085659 
H 50.4830434696 -1.0744179 -0.87085659 
C 54.3171986765 0.42056027 0.0 
H 54.3171986765 1.0744179 0.87085659 
H 54.3171986765 1.0744179 -0.87085659 
C 53.0391469365 -0.42056027 0.0 
H 53.0391469365 -1.0744179 0.87085659 
H 53.0391469365 -1.0744179 -0.87085659 
C 56.8733021435 0.42056027 0.0 
H 56.8733021435 1.0744179 0.87085659 
H 56.8733021435 1.0744179 -0.87085659 
C 55.5952504035 -0.42056027 0.0 
H 55.5952504035 -1.0744179 0.87085659 
H 55.5952504035 -1.0744179 -0.87085659 
C 59.4294056105 0.42056027 0.0 
H 59.4294056105 1.0744179 0.87085659 
H 59.4294056105 1.0744179 -0.87085659 
C 58.1513538705 -0.42056027 0.0 
H 58.1513538705 -1.0744179 0.87085659 
H 58.1513538705 -1.0744179 -0.87085659 
C 61.9855090775 0.42056027 0.0 
H 61.9855090775 1.0744179 0.87085659 
H 61.9855090775 1.0744179 -0.87085659 
C 60.7074573375 -0.42056027 0.0 
H 60.7074573375 -1.0744179 0.87085659 
H 60.7074573375 -1.0744179 -0.87085659 
C 64.5416125445 0.42056027 0.0 
H 64.5416125445 1.0744179 0.87085659 
H 64.5416125445 1.0744179 -0.87085659 
C 63.2635608045 -0.42056027 0.0 
H 63.2635608045 -1.0744179 0.87085659 
H 63.2635608045 -1.0744179 -0.87085659 
C 67.0977160114 0.42056027 0.0 
H 67.0977160114 1.0744179 0.87085659 
H 67.0977160114 1.0744179 -0.87085659 
C 65.8196642714 -0.42056027 0.0 
H 65.8196642714 -1.0744179 0.87085659 
H 65.8196642714 -1.0744179 -0.87085659 
C 69.6538194784 0.42056027 0.0 
H 69.6538194784 1.0744179 0.87085659 
H 69.6538194784 1.0744179 -0.87085659 
C 68.3757677384 -0.42056027 0.0 
H 68.3757677384 -1.0744179 0.87085659 
H 68.3757677384 -1.0744179 -0.87085659 
C 72.2099229454 0.42056027 0.0 
H 72.2099229454 1.0744179 0.87085659 
H 72.2099229454 1.0744179 -0.87085659 
C 70.9318712054 -0.42056027 0.0 
H 70.9318712054 -1.0744179 0.87085659 
H 70.9318712054 -1.0744179 -0.87085659 
C 74.7660264124 0.42056027 0.0 
H 74.7660264124 1.0744179 0.87085659 
H 74.7660264124 1.0744179 -0.87085659 
C 73.4879746724 -0.42056027 0.0 
H 73.4879746724 -1.0744179 0.87085659 
H 73.4879746724 -1.0744179 -0.87085659 
C 77.3221298794 0.42056027 0.0 
H 77.3221298794 1.0744179 0.87085659 
H 77.3221298794 1.0744179 -0.87085659 
C 76.0440781394 -0.42056027 0.0 
H 76.0440781394 -1.0744179 0.87085659 
H 76.0440781394 -1.0744179 -0.87085659 
C 79.8782333463 0.42056027 0.0 
H 79.8782333463 1.0744179 0.87085659 
H 79.8782333463 1.0744179 -0.87085659 
C 78.6001816063 -0.42056027 0.0 
H 78.6001816063 -1.0744179 0.87085659 
H 78.6001816063 -1.0744179 -0.87085659 
