384
CC bond length:2.55610346698
C 0.63902587 0.42056027 0.0 
H 0.63902587 1.0744179 0.87085659 
H 0.63902587 1.0744179 -0.87085659 
C -0.63902587 -0.42056027 0.0 
H -0.63902587 -1.0744179 0.87085659 
H -0.63902587 -1.0744179 -0.87085659 
C 3.19512933698 0.42056027 0.0 
H 3.19512933698 1.0744179 0.87085659 
H 3.19512933698 1.0744179 -0.87085659 
C 1.91707759698 -0.42056027 0.0 
H 1.91707759698 -1.0744179 0.87085659 
H 1.91707759698 -1.0744179 -0.87085659 
C 5.75123280396 0.42056027 0.0 
H 5.75123280396 1.0744179 0.87085659 
H 5.75123280396 1.0744179 -0.87085659 
C 4.47318106396 -0.42056027 0.0 
H 4.47318106396 -1.0744179 0.87085659 
H 4.47318106396 -1.0744179 -0.87085659 
C 8.30733627094 0.42056027 0.0 
H 8.30733627094 1.0744179 0.87085659 
H 8.30733627094 1.0744179 -0.87085659 
C 7.02928453094 -0.42056027 0.0 
H 7.02928453094 -1.0744179 0.87085659 
H 7.02928453094 -1.0744179 -0.87085659 
C 10.8634397379 0.42056027 0.0 
H 10.8634397379 1.0744179 0.87085659 
H 10.8634397379 1.0744179 -0.87085659 
C 9.58538799791 -0.42056027 0.0 
H 9.58538799791 -1.0744179 0.87085659 
H 9.58538799791 -1.0744179 -0.87085659 
C 13.4195432049 0.42056027 0.0 
H 13.4195432049 1.0744179 0.87085659 
H 13.4195432049 1.0744179 -0.87085659 
C 12.1414914649 -0.42056027 0.0 
H 12.1414914649 -1.0744179 0.87085659 
H 12.1414914649 -1.0744179 -0.87085659 
C 15.9756466719 0.42056027 0.0 
H 15.9756466719 1.0744179 0.87085659 
H 15.9756466719 1.0744179 -0.87085659 
C 14.6975949319 -0.42056027 0.0 
H 14.6975949319 -1.0744179 0.87085659 
H 14.6975949319 -1.0744179 -0.87085659 
C 18.5317501388 0.42056027 0.0 
H 18.5317501388 1.0744179 0.87085659 
H 18.5317501388 1.0744179 -0.87085659 
C 17.2536983988 -0.42056027 0.0 
H 17.2536983988 -1.0744179 0.87085659 
H 17.2536983988 -1.0744179 -0.87085659 
C 21.0878536058 0.42056027 0.0 
H 21.0878536058 1.0744179 0.87085659 
H 21.0878536058 1.0744179 -0.87085659 
C 19.8098018658 -0.42056027 0.0 
H 19.8098018658 -1.0744179 0.87085659 
H 19.8098018658 -1.0744179 -0.87085659 
C 23.6439570728 0.42056027 0.0 
H 23.6439570728 1.0744179 0.87085659 
H 23.6439570728 1.0744179 -0.87085659 
C 22.3659053328 -0.42056027 0.0 
H 22.3659053328 -1.0744179 0.87085659 
H 22.3659053328 -1.0744179 -0.87085659 
C 26.2000605398 0.42056027 0.0 
H 26.2000605398 1.0744179 0.87085659 
H 26.2000605398 1.0744179 -0.87085659 
C 24.9220087998 -0.42056027 0.0 
H 24.9220087998 -1.0744179 0.87085659 
H 24.9220087998 -1.0744179 -0.87085659 
C 28.7561640068 0.42056027 0.0 
H 28.7561640068 1.0744179 0.87085659 
H 28.7561640068 1.0744179 -0.87085659 
C 27.4781122668 -0.42056027 0.0 
H 27.4781122668 -1.0744179 0.87085659 
H 27.4781122668 -1.0744179 -0.87085659 
C 31.3122674737 0.42056027 0.0 
H 31.3122674737 1.0744179 0.87085659 
H 31.3122674737 1.0744179 -0.87085659 
C 30.0342157337 -0.42056027 0.0 
H 30.0342157337 -1.0744179 0.87085659 
H 30.0342157337 -1.0744179 -0.87085659 
C 33.8683709407 0.42056027 0.0 
H 33.8683709407 1.0744179 0.87085659 
H 33.8683709407 1.0744179 -0.87085659 
C 32.5903192007 -0.42056027 0.0 
H 32.5903192007 -1.0744179 0.87085659 
H 32.5903192007 -1.0744179 -0.87085659 
C 36.4244744077 0.42056027 0.0 
H 36.4244744077 1.0744179 0.87085659 
H 36.4244744077 1.0744179 -0.87085659 
C 35.1464226677 -0.42056027 0.0 
H 35.1464226677 -1.0744179 0.87085659 
H 35.1464226677 -1.0744179 -0.87085659 
C 38.9805778747 0.42056027 0.0 
H 38.9805778747 1.0744179 0.87085659 
H 38.9805778747 1.0744179 -0.87085659 
C 37.7025261347 -0.42056027 0.0 
H 37.7025261347 -1.0744179 0.87085659 
H 37.7025261347 -1.0744179 -0.87085659 
C 41.5366813417 0.42056027 0.0 
H 41.5366813417 1.0744179 0.87085659 
H 41.5366813417 1.0744179 -0.87085659 
C 40.2586296017 -0.42056027 0.0 
H 40.2586296017 -1.0744179 0.87085659 
H 40.2586296017 -1.0744179 -0.87085659 
C 44.0927848086 0.42056027 0.0 
H 44.0927848086 1.0744179 0.87085659 
H 44.0927848086 1.0744179 -0.87085659 
C 42.8147330686 -0.42056027 0.0 
H 42.8147330686 -1.0744179 0.87085659 
H 42.8147330686 -1.0744179 -0.87085659 
C 46.6488882756 0.42056027 0.0 
H 46.6488882756 1.0744179 0.87085659 
H 46.6488882756 1.0744179 -0.87085659 
C 45.3708365356 -0.42056027 0.0 
H 45.3708365356 -1.0744179 0.87085659 
H 45.3708365356 -1.0744179 -0.87085659 
C 49.2049917426 0.42056027 0.0 
H 49.2049917426 1.0744179 0.87085659 
H 49.2049917426 1.0744179 -0.87085659 
C 47.9269400026 -0.42056027 0.0 
H 47.9269400026 -1.0744179 0.87085659 
H 47.9269400026 -1.0744179 -0.87085659 
C 51.7610952096 0.42056027 0.0 
H 51.7610952096 1.0744179 0.87085659 
H 51.7610952096 1.0744179 -0.87085659 
C 50.4830434696 -0.42056027 0.0 
H 50.4830434696 -1.0744179 0.87085659 
H 50.4830434696 -1.0744179 -0.87085659 
C 54.3171986765 0.42056027 0.0 
H 54.3171986765 1.0744179 0.87085659 
H 54.3171986765 1.0744179 -0.87085659 
C 53.0391469365 -0.42056027 0.0 
H 53.0391469365 -1.0744179 0.87085659 
H 53.0391469365 -1.0744179 -0.87085659 
C 56.8733021435 0.42056027 0.0 
H 56.8733021435 1.0744179 0.87085659 
H 56.8733021435 1.0744179 -0.87085659 
C 55.5952504035 -0.42056027 0.0 
H 55.5952504035 -1.0744179 0.87085659 
H 55.5952504035 -1.0744179 -0.87085659 
C 59.4294056105 0.42056027 0.0 
H 59.4294056105 1.0744179 0.87085659 
H 59.4294056105 1.0744179 -0.87085659 
C 58.1513538705 -0.42056027 0.0 
H 58.1513538705 -1.0744179 0.87085659 
H 58.1513538705 -1.0744179 -0.87085659 
C 61.9855090775 0.42056027 0.0 
H 61.9855090775 1.0744179 0.87085659 
H 61.9855090775 1.0744179 -0.87085659 
C 60.7074573375 -0.42056027 0.0 
H 60.7074573375 -1.0744179 0.87085659 
H 60.7074573375 -1.0744179 -0.87085659 
C 64.5416125445 0.42056027 0.0 
H 64.5416125445 1.0744179 0.87085659 
H 64.5416125445 1.0744179 -0.87085659 
C 63.2635608045 -0.42056027 0.0 
H 63.2635608045 -1.0744179 0.87085659 
H 63.2635608045 -1.0744179 -0.87085659 
C 67.0977160114 0.42056027 0.0 
H 67.0977160114 1.0744179 0.87085659 
H 67.0977160114 1.0744179 -0.87085659 
C 65.8196642714 -0.42056027 0.0 
H 65.8196642714 -1.0744179 0.87085659 
H 65.8196642714 -1.0744179 -0.87085659 
C 69.6538194784 0.42056027 0.0 
H 69.6538194784 1.0744179 0.87085659 
H 69.6538194784 1.0744179 -0.87085659 
C 68.3757677384 -0.42056027 0.0 
H 68.3757677384 -1.0744179 0.87085659 
H 68.3757677384 -1.0744179 -0.87085659 
C 72.2099229454 0.42056027 0.0 
H 72.2099229454 1.0744179 0.87085659 
H 72.2099229454 1.0744179 -0.87085659 
C 70.9318712054 -0.42056027 0.0 
H 70.9318712054 -1.0744179 0.87085659 
H 70.9318712054 -1.0744179 -0.87085659 
C 74.7660264124 0.42056027 0.0 
H 74.7660264124 1.0744179 0.87085659 
H 74.7660264124 1.0744179 -0.87085659 
C 73.4879746724 -0.42056027 0.0 
H 73.4879746724 -1.0744179 0.87085659 
H 73.4879746724 -1.0744179 -0.87085659 
C 77.3221298794 0.42056027 0.0 
H 77.3221298794 1.0744179 0.87085659 
H 77.3221298794 1.0744179 -0.87085659 
C 76.0440781394 -0.42056027 0.0 
H 76.0440781394 -1.0744179 0.87085659 
H 76.0440781394 -1.0744179 -0.87085659 
C 79.8782333463 0.42056027 0.0 
H 79.8782333463 1.0744179 0.87085659 
H 79.8782333463 1.0744179 -0.87085659 
C 78.6001816063 -0.42056027 0.0 
H 78.6001816063 -1.0744179 0.87085659 
H 78.6001816063 -1.0744179 -0.87085659 
C 82.4343368133 0.42056027 0.0 
H 82.4343368133 1.0744179 0.87085659 
H 82.4343368133 1.0744179 -0.87085659 
C 81.1562850733 -0.42056027 0.0 
H 81.1562850733 -1.0744179 0.87085659 
H 81.1562850733 -1.0744179 -0.87085659 
C 84.9904402803 0.42056027 0.0 
H 84.9904402803 1.0744179 0.87085659 
H 84.9904402803 1.0744179 -0.87085659 
C 83.7123885403 -0.42056027 0.0 
H 83.7123885403 -1.0744179 0.87085659 
H 83.7123885403 -1.0744179 -0.87085659 
C 87.5465437473 0.42056027 0.0 
H 87.5465437473 1.0744179 0.87085659 
H 87.5465437473 1.0744179 -0.87085659 
C 86.2684920073 -0.42056027 0.0 
H 86.2684920073 -1.0744179 0.87085659 
H 86.2684920073 -1.0744179 -0.87085659 
C 90.1026472142 0.42056027 0.0 
H 90.1026472142 1.0744179 0.87085659 
H 90.1026472142 1.0744179 -0.87085659 
C 88.8245954742 -0.42056027 0.0 
H 88.8245954742 -1.0744179 0.87085659 
H 88.8245954742 -1.0744179 -0.87085659 
C 92.6587506812 0.42056027 0.0 
H 92.6587506812 1.0744179 0.87085659 
H 92.6587506812 1.0744179 -0.87085659 
C 91.3806989412 -0.42056027 0.0 
H 91.3806989412 -1.0744179 0.87085659 
H 91.3806989412 -1.0744179 -0.87085659 
C 95.2148541482 0.42056027 0.0 
H 95.2148541482 1.0744179 0.87085659 
H 95.2148541482 1.0744179 -0.87085659 
C 93.9368024082 -0.42056027 0.0 
H 93.9368024082 -1.0744179 0.87085659 
H 93.9368024082 -1.0744179 -0.87085659 
C 97.7709576152 0.42056027 0.0 
H 97.7709576152 1.0744179 0.87085659 
H 97.7709576152 1.0744179 -0.87085659 
C 96.4929058752 -0.42056027 0.0 
H 96.4929058752 -1.0744179 0.87085659 
H 96.4929058752 -1.0744179 -0.87085659 
C 100.327061082 0.42056027 0.0 
H 100.327061082 1.0744179 0.87085659 
H 100.327061082 1.0744179 -0.87085659 
C 99.0490093422 -0.42056027 0.0 
H 99.0490093422 -1.0744179 0.87085659 
H 99.0490093422 -1.0744179 -0.87085659 
C 102.883164549 0.42056027 0.0 
H 102.883164549 1.0744179 0.87085659 
H 102.883164549 1.0744179 -0.87085659 
C 101.605112809 -0.42056027 0.0 
H 101.605112809 -1.0744179 0.87085659 
H 101.605112809 -1.0744179 -0.87085659 
C 105.439268016 0.42056027 0.0 
H 105.439268016 1.0744179 0.87085659 
H 105.439268016 1.0744179 -0.87085659 
C 104.161216276 -0.42056027 0.0 
H 104.161216276 -1.0744179 0.87085659 
H 104.161216276 -1.0744179 -0.87085659 
C 107.995371483 0.42056027 0.0 
H 107.995371483 1.0744179 0.87085659 
H 107.995371483 1.0744179 -0.87085659 
C 106.717319743 -0.42056027 0.0 
H 106.717319743 -1.0744179 0.87085659 
H 106.717319743 -1.0744179 -0.87085659 
C 110.55147495 0.42056027 0.0 
H 110.55147495 1.0744179 0.87085659 
H 110.55147495 1.0744179 -0.87085659 
C 109.27342321 -0.42056027 0.0 
H 109.27342321 -1.0744179 0.87085659 
H 109.27342321 -1.0744179 -0.87085659 
C 113.107578417 0.42056027 0.0 
H 113.107578417 1.0744179 0.87085659 
H 113.107578417 1.0744179 -0.87085659 
C 111.829526677 -0.42056027 0.0 
H 111.829526677 -1.0744179 0.87085659 
H 111.829526677 -1.0744179 -0.87085659 
C 115.663681884 0.42056027 0.0 
H 115.663681884 1.0744179 0.87085659 
H 115.663681884 1.0744179 -0.87085659 
C 114.385630144 -0.42056027 0.0 
H 114.385630144 -1.0744179 0.87085659 
H 114.385630144 -1.0744179 -0.87085659 
C 118.219785351 0.42056027 0.0 
H 118.219785351 1.0744179 0.87085659 
H 118.219785351 1.0744179 -0.87085659 
C 116.941733611 -0.42056027 0.0 
H 116.941733611 -1.0744179 0.87085659 
H 116.941733611 -1.0744179 -0.87085659 
C 120.775888818 0.42056027 0.0 
H 120.775888818 1.0744179 0.87085659 
H 120.775888818 1.0744179 -0.87085659 
C 119.497837078 -0.42056027 0.0 
H 119.497837078 -1.0744179 0.87085659 
H 119.497837078 -1.0744179 -0.87085659 
C 123.331992285 0.42056027 0.0 
H 123.331992285 1.0744179 0.87085659 
H 123.331992285 1.0744179 -0.87085659 
C 122.053940545 -0.42056027 0.0 
H 122.053940545 -1.0744179 0.87085659 
H 122.053940545 -1.0744179 -0.87085659 
C 125.888095752 0.42056027 0.0 
H 125.888095752 1.0744179 0.87085659 
H 125.888095752 1.0744179 -0.87085659 
C 124.610044012 -0.42056027 0.0 
H 124.610044012 -1.0744179 0.87085659 
H 124.610044012 -1.0744179 -0.87085659 
C 128.444199219 0.42056027 0.0 
H 128.444199219 1.0744179 0.87085659 
H 128.444199219 1.0744179 -0.87085659 
C 127.166147479 -0.42056027 0.0 
H 127.166147479 -1.0744179 0.87085659 
H 127.166147479 -1.0744179 -0.87085659 
C 131.000302686 0.42056027 0.0 
H 131.000302686 1.0744179 0.87085659 
H 131.000302686 1.0744179 -0.87085659 
C 129.722250946 -0.42056027 0.0 
H 129.722250946 -1.0744179 0.87085659 
H 129.722250946 -1.0744179 -0.87085659 
C 133.556406153 0.42056027 0.0 
H 133.556406153 1.0744179 0.87085659 
H 133.556406153 1.0744179 -0.87085659 
C 132.278354413 -0.42056027 0.0 
H 132.278354413 -1.0744179 0.87085659 
H 132.278354413 -1.0744179 -0.87085659 
C 136.11250962 0.42056027 0.0 
H 136.11250962 1.0744179 0.87085659 
H 136.11250962 1.0744179 -0.87085659 
C 134.83445788 -0.42056027 0.0 
H 134.83445788 -1.0744179 0.87085659 
H 134.83445788 -1.0744179 -0.87085659 
C 138.668613087 0.42056027 0.0 
H 138.668613087 1.0744179 0.87085659 
H 138.668613087 1.0744179 -0.87085659 
C 137.390561347 -0.42056027 0.0 
H 137.390561347 -1.0744179 0.87085659 
H 137.390561347 -1.0744179 -0.87085659 
C 141.224716554 0.42056027 0.0 
H 141.224716554 1.0744179 0.87085659 
H 141.224716554 1.0744179 -0.87085659 
C 139.946664814 -0.42056027 0.0 
H 139.946664814 -1.0744179 0.87085659 
H 139.946664814 -1.0744179 -0.87085659 
C 143.780820021 0.42056027 0.0 
H 143.780820021 1.0744179 0.87085659 
H 143.780820021 1.0744179 -0.87085659 
C 142.502768281 -0.42056027 0.0 
H 142.502768281 -1.0744179 0.87085659 
H 142.502768281 -1.0744179 -0.87085659 
C 146.336923488 0.42056027 0.0 
H 146.336923488 1.0744179 0.87085659 
H 146.336923488 1.0744179 -0.87085659 
C 145.058871748 -0.42056027 0.0 
H 145.058871748 -1.0744179 0.87085659 
H 145.058871748 -1.0744179 -0.87085659 
C 148.893026955 0.42056027 0.0 
H 148.893026955 1.0744179 0.87085659 
H 148.893026955 1.0744179 -0.87085659 
C 147.614975215 -0.42056027 0.0 
H 147.614975215 -1.0744179 0.87085659 
H 147.614975215 -1.0744179 -0.87085659 
C 151.449130422 0.42056027 0.0 
H 151.449130422 1.0744179 0.87085659 
H 151.449130422 1.0744179 -0.87085659 
C 150.171078682 -0.42056027 0.0 
H 150.171078682 -1.0744179 0.87085659 
H 150.171078682 -1.0744179 -0.87085659 
C 154.005233889 0.42056027 0.0 
H 154.005233889 1.0744179 0.87085659 
H 154.005233889 1.0744179 -0.87085659 
C 152.727182149 -0.42056027 0.0 
H 152.727182149 -1.0744179 0.87085659 
H 152.727182149 -1.0744179 -0.87085659 
C 156.561337356 0.42056027 0.0 
H 156.561337356 1.0744179 0.87085659 
H 156.561337356 1.0744179 -0.87085659 
C 155.283285616 -0.42056027 0.0 
H 155.283285616 -1.0744179 0.87085659 
H 155.283285616 -1.0744179 -0.87085659 
C 159.117440823 0.42056027 0.0 
H 159.117440823 1.0744179 0.87085659 
H 159.117440823 1.0744179 -0.87085659 
C 157.839389083 -0.42056027 0.0 
H 157.839389083 -1.0744179 0.87085659 
H 157.839389083 -1.0744179 -0.87085659 
C 161.67354429 0.42056027 0.0 
H 161.67354429 1.0744179 0.87085659 
H 161.67354429 1.0744179 -0.87085659 
C 160.39549255 -0.42056027 0.0 
H 160.39549255 -1.0744179 0.87085659 
H 160.39549255 -1.0744179 -0.87085659 
