28

N       -1.153960833     2.418168759     1.059644630
C       -0.290607663     1.391060328     1.510673871
C        0.988210289     1.375169730     0.673542669
O        2.083649299     1.489147920     1.198964473
H       -0.807696926     3.355635733     0.900268075
H        2.228312606     0.883629281    -3.807037079
H       -2.131090804     2.116938299     0.915888936
H       -0.011833103     1.610446667     2.555474748
C       -1.012356398     0.017230486     1.442715814
C       -1.457706781    -0.330835128    -0.002423058
H       -1.897024901     0.046356862     2.100091686
H       -0.338249595    -0.771806324     1.815125813
H       -0.583127441    -0.365067596    -0.671372423
H       -2.151527913     0.435407584    -0.382482837
C       -2.156274231    -1.665933276    -0.029026101
O       -1.703598948    -2.633482719    -0.619376192
O       -3.307115705    -1.738106156     0.635325690
H       -3.662294062    -2.615675951     0.558231668
N        0.783361111     1.227881994    -0.622120550
C        1.867475131     1.202166082    -1.532647035
C        2.816220116     2.367099723    -1.249329877
O        3.997902439     2.170998771    -1.016474146
H        0.925228093     1.764933156    -3.471378032
H        2.340073107     3.353534757    -1.287354748
H       -0.144176797     1.131468710    -1.066105110
H        2.441630224     0.301295183    -1.258541383
C        1.459107016     0.968303771    -3.160508251
H        0.877473173     0.168276219    -3.356437916
