210

N      -10.907529854    -0.052104685    -0.862493045
C      -10.044176683    -1.079213115    -0.411463804
C       -8.765358731    -1.095103714    -1.248595006
O       -7.669919722    -0.981125524    -0.723173201
H      -10.561265946     0.885362290    -1.021869600
H       -7.525256415    -1.586644163    -5.729174753
H      -11.884659825    -0.353335144    -1.006248739
H       -9.765402124    -0.859826776     0.633337074
C      -10.765925419    -2.453042957    -0.479421861
C      -11.211275801    -2.801108572    -1.924560732
H      -11.650593922    -2.423916581     0.177954012
H      -10.091818616    -3.242079767    -0.107011861
H      -10.336696461    -2.835341039    -2.593510098
H      -11.905096934    -2.034865859    -2.304620511
C      -11.909843251    -4.136206719    -1.951163775
O      -11.457167968    -5.103756162    -2.541513867
O      -13.060684726    -4.208379599    -1.286811984
H      -13.415863082    -5.085949394    -1.363906006
N       -8.970207910    -1.242391449    -2.544258224
C       -7.886093890    -1.268107361    -3.454784710
C       -6.937348904    -0.103173721    -3.171467551
O       -5.755666581    -0.299274672    -2.938611820
H       -8.828340927    -0.705340288    -5.393515707
O      -10.438630120     4.716000482    -2.639771564
H       -9.897745818    -1.338804733    -2.988242785
H       -7.311938797    -2.168978260    -3.180679057
C       -8.294462005    -1.501969672    -5.082645925
H       -8.876095847    -2.301997224    -5.278575591
N       -7.510810651     1.084868516    -3.217263931
C       -6.761441848     2.263342682    -2.986173390
C       -5.911412350     2.105957312    -1.725579795
O       -4.699979946     2.247415263    -1.763879978
H      -10.961855712     5.494065026    -2.487868820
H       -6.533643631     1.231471473     2.824493104
H       -8.510698793     1.250985636    -3.414284935
H       -6.079779770     2.410453302    -3.841246353
C       -7.711667708     3.485933882    -2.862522495
C       -8.717566419     3.320167960    -1.692649666
H       -8.267285793     3.602673210    -3.807662810
H       -7.116557130     4.400337790    -2.703157597
H       -8.176385031     3.203807203    -0.740212258
H       -9.337880186     2.423391253    -1.847451031
C       -9.623882357     4.521097015    -1.605746880
O       -9.620059177     5.280234551    -0.650092313
N       -6.604295185     1.816106566    -0.640084535
C       -5.960166281     1.630107076     0.607122402
C       -4.765228678     0.690496051     0.443686503
O       -3.644148676     1.037860548     0.777704502
H       -7.420978957     0.409330955     1.764250797
O       -6.805307652    -3.952433589    -2.726075777
H       -7.629695645     1.696529212    -0.608469128
H       -5.514056874     2.611346755     0.840599264
C       -6.977462953     1.300842288     1.921687126
H       -7.735065608     1.950885419     2.063858114
N       -5.070188896    -0.489074995    -0.064261774
C       -4.073007502    -1.472960728    -0.267623353
C       -2.866607153    -0.858575362    -0.977232636
O       -1.752314924    -0.914497441    -0.482994563
H       -7.072100229    -4.677823088    -3.278213162
H       -1.925227482     1.374491704    -4.975016577
H       -6.018757512    -0.783170880    -0.346951819
H       -3.740194466    -1.834404641     0.720328202
C       -4.651014950    -2.659030064    -1.087437289
C       -5.165972439    -2.203501040    -2.478560966
H       -5.481541486    -3.112412579    -0.521487016
H       -3.872225589    -3.427803536    -1.222206568
H       -4.345797133    -1.749217660    -3.056914851
H       -5.962521126    -1.451794216    -2.362767479
C       -5.721885911    -3.377581438    -3.242554879
O       -5.217077543    -3.789269061    -4.274670125
N       -3.152618557    -0.289526943    -2.133425273
C       -2.143843172     0.332327626    -2.908468571
C       -1.302680106     1.256523882    -2.027695034
O       -0.092781286     1.118273868    -1.949706142
H       -3.283704248     1.746698159    -4.198230897
O       -5.235792600     4.479011607     1.120687049
H       -4.096061363    -0.242598070    -2.551106652
H       -1.459992206    -0.486981479    -3.186743262
C       -2.647850605     0.987680089    -4.387616261
H       -3.156286110     0.362724672    -4.993961467
N       -1.998410595     2.186024717    -1.399692389
C       -1.360331991     3.124614174    -0.553723520
C       -0.405473722     2.407143738     0.400162414
O        0.778270771     2.700550666     0.441479179
H       -5.824081936     4.968159923     1.683602211
H       -0.586775283    -0.909324319     3.690030194
H       -3.022192691     2.303151872    -1.465570461
H       -0.764435463     3.806303098    -1.184328018
C       -2.420446669     3.940382340     0.235977144
C       -3.312088219     3.027527227     1.118917619
H       -3.055209057     4.487779196    -0.480307112
H       -1.913313457     4.681441523     0.875770446
H       -2.691128896     2.474549486     1.841537350
H       -3.845702620     2.295212462     0.492873011
C       -4.329189779     3.851436497     1.865824038
O       -4.331936152     3.948228167     3.082460343
N       -0.980190244     1.479071882     1.142310369
C       -0.227558888     0.718974512     2.070114781
C        1.042785597     0.189610160     1.404191120
O        2.143726984     0.434958118     1.869790658
H       -1.461567663    -1.113744113     2.355735023
O       -0.737629452    -2.141290100    -3.807635527
H       -1.982231933     1.231295757     1.106760012
H        0.130476734     1.454896332     2.809429277
C       -1.102533682    -0.409956216     2.981883806
H       -1.910673455    -0.050943613     3.466394386
N        0.824554400    -0.539603903     0.325756128
C        1.900366361    -1.108759917    -0.397049418
C        2.979060725    -0.055418924    -0.648659705
O        4.127357401    -0.231519255    -0.275230805
H       -0.968597727    -2.467303753    -4.669373684
H        3.377405218     4.114911999    -2.723442175
H       -0.106960768    -0.747309967    -0.068358265
H        2.342871829    -1.909911433     0.219229459
C        1.388401110    -1.705943376    -1.736531208
C        0.724927849    -0.627776775    -2.633901258
H        0.654823208    -2.498964674    -1.516053485
H        2.230461289    -2.164056069    -2.281284081
H        1.447206952     0.171515342    -2.864116694
H       -0.134406892    -0.175500485    -2.114333117
C        0.237855928    -1.243124497    -3.920485647
O        0.703072829    -0.946221148    -5.009063482
N        2.548625895     1.015690715    -1.288855016
C        3.425603075     2.085957589    -1.589625429
C        4.230392393     2.467708939    -0.347032934
O        5.450520382     2.466362881    -0.365373222
H        2.050375566     3.816954805    -1.864601924
O        0.233399206     2.873098515     4.083070397
H        1.576494874     1.164015569    -1.604616631
H        4.167895617     1.653411272    -2.281190192
C        2.745535075     3.378699249    -2.448528654
H        2.260379226     3.134264148    -3.298002449
N        3.491360422     2.795996217     0.696259569
C        4.090619373     3.182729726     1.918995724
C        5.184446255     2.187355179     2.305245357
O        6.330962399     2.558239676     2.497576184
H       -0.358216845     2.888733746     4.826017155
H        5.598897443    -2.385468368     3.184208190
H        2.458916358     2.797190664     0.711953453
H        4.562872879     4.169265083     1.773465282
C        3.014315518     3.281107084     3.034719648
C        2.291941157     1.926693563     3.261991057
H        2.273617435     4.046234556     2.749104442
H        3.488638803     3.602443369     3.976764599
H        3.020011501     1.151693140     3.549814018
H        1.791489242     1.601545358     2.336362828
C        1.254203110     2.060972811     4.346546310
O        1.333608463     1.467373238     5.409990904
N        4.767275271     0.939043386     2.405674820
C        5.663013819    -0.102998571     2.747470092
C        6.927390804    -0.007053991     1.893302940
O        8.028942789     0.078953717     2.411218364
H        4.651527935    -1.928231539     1.967319428
O        5.009263404     0.728003610    -3.723332029
H        3.796642108     0.625895818     2.242720083
H        5.997555209     0.139890781     3.769939248
C        4.981825948    -1.649072567     2.877955795
H        4.179781217    -1.725462559     3.484271935
N        6.705095371    -0.038877011     0.592544671
C        7.776385508     0.030759033    -0.330085302
C        8.717487529     1.175677837     0.043952709
O        9.902850618     0.971847039     0.249897065
H        4.748821698     0.906575279    -4.619159118
H        8.521544142     5.807193034     0.648712009
H        5.773062905    -0.111651311     0.154129510
H        8.345239519    -0.912652614    -0.268165411
C        7.229284044     0.214226152    -1.772294639
C        6.391186664     1.512713197    -1.911711885
H        6.600994270    -0.654815461    -2.028514036
H        8.070709266     0.246725576    -2.484078076
H        7.006881447     2.390849455    -1.660016066
H        5.531329064     1.487117831    -1.223997644
C        5.874669324     1.655172469    -3.320295024
O        6.222645763     2.561477722    -4.059959308
N        8.130713479     2.356080990     0.112834131
C        8.866289774     3.516182477     0.456512834
C        9.718845107     3.246631381     1.696653011
O       10.927578264     3.412570210     1.674768147
H        7.301620898     4.916262500     1.201362734
O        6.048632673     0.616045697     5.617835284
H        7.127310159     2.527807357    -0.061625646
H        9.594992451     3.638098059    -0.362318867
C        7.992333001     4.967883187     0.468875740
H        7.472261744     5.174134025    -0.370002632
N        9.030873457     2.844776352     2.749082382
C        9.677584460     2.563878467     3.976526499
C       10.895113685     1.671581216     3.736017213
O       12.008096461     2.017927053     4.097070706
H        5.516609652     0.141914327     6.245827996
H       11.848338670    -2.525311665     1.910500050
H        8.008078912     2.704311736     2.767776787
H       10.032275033     3.517149400     4.404222207
C        8.684546643     1.889343979     4.962339406
C        8.126271641     0.555885652     4.398308462
H        7.848783728     2.581867579     5.156094807
H        9.192892023     1.693799052     5.921002764
H        8.950705987    -0.147609663     4.200934481
H        7.593655406     0.735852794     3.451264182
C        7.165382922    -0.066898139     5.378116855
O        7.386454704    -1.133486477     5.928658998
N       10.618856884     0.534862344     3.124500716
C       11.641429903    -0.396733987     2.822018166
C       12.820586573     0.317271989     2.160776108
O       13.943281288     0.243264374     2.633142425
H       10.769074575    -1.597714437     1.160736649
H       12.558453265     0.869145887     1.250865523
H        9.676515644     0.242411511     2.819197783
H       12.025409285    -0.719308839     3.804291883
C       11.136598885    -1.829125830     2.070494722
H       10.395114447    -2.330496181     2.534778087
